# ####################################################### #
# Description: this was generated with "make_scenario.py" #
#              you can adapt it to your scenario          #
# ####################################################### #

[General]
include ../WiseCastalia.ini  # ALWAYS include WiseCastalia.ini

sim-time-limit =  3600s
#sim-time-limit =  3600s
#sim-time-limit =  1000s
# ==============================================
# Sensor Network setup
# ==============================================
SN.field_x = 160 # meters
SN.field_y = 120 # meters
SN.numNodes = 9
SN.numPhysicalProcesses = 3
#SN.numPhysicalProcesses = 2              
#SN.numPhysicalProcesses = 1              
SN.dummy_communication = true    # uncomment for dummy communication

# ==============================================
# Physical Processes (environment's events) 
# ==============================================
SN.wiseTerrain.gui = "opencv" 
SN.wiseTerrain.gui_wait_start = false 
SN.physicalProcessName = "WiseMovingTarget"
# --- 
SN.physicalProcess[**].bb_width = 10.00
SN.physicalProcess[**].bb_height = 10.00
SN.physicalProcess[**].move_min_x = 20
SN.physicalProcess[**].move_max_x = 140
SN.physicalProcess[**].move_min_y = 20
SN.physicalProcess[**].move_max_y = 100
SN.physicalProcess[**].log_enabled = false

SN.physicalProcess[0].x_init = 80.00
SN.physicalProcess[0].y_init = 60.00
SN.physicalProcess[0].update_time = 10.00
#SN.physicalProcess[0].move_type = "lin_random"
SN.physicalProcess[0].move_type = "lin_noise"
SN.physicalProcess[0].move_later = 0
SN.physicalProcess[0].noise = 5

SN.physicalProcess[1].x_init = 20.00
SN.physicalProcess[1].y_init = 80.00
SN.physicalProcess[1].update_time = 10.00
SN.physicalProcess[1].move_type = "lin_noise"
SN.physicalProcess[1].move_later = 0
SN.physicalProcess[1].noise = 5

SN.physicalProcess[2].x_init = 100.00
SN.physicalProcess[2].y_init = 100.00
SN.physicalProcess[2].update_time = 5.00
SN.physicalProcess[2].move_type = "lin_random"
SN.physicalProcess[2].move_later = 0
SN.physicalProcess[2].noise = 5

# ==============================================
# Applications 
# ==============================================
SN.node[**].ApplicationName = "WiseCameraICF_NN"
SN.node[**].Application.collectTraceInfo = true
SN.node[**].Application.showCamImage = false
SN.node[**].Application.sampling_time = 10

# if set to 'false', the processing starts at time=0 (as discovering FOV neighbours is done instantly)
# if set to 'true', there is delay to discover the Comms neighbours (different for each node)
SN.node[**].Application.neighbourDiscover = false
SN.node[**].Application.neighbourDiscoverFOV = true
SN.node[**].Application.procNoiseCov = 10
#SN.node[**].Application.processNoiseCov = 5
SN.node[**].Application.measNoiseCov = 10
#SN.node[**].Application.alpha = 0.005
#SN.node[**].Application.iter_max = ${0, 1, 2, 3, 4, 5, 6, 7, 8, 9, 10, 11, 12, 13, 14, 15, 16, 17, 18, 19, 20}
SN.node[**].Application.iter_max = 10
SN.node[**].Application.alpha = 0.65
SN.node[**].Application.lambda = ${0.0039, 0.078, 0.0156, 0.0312, 0.064, 0.125, 0.25, 0.5, 1} 
#1/256=0.0039, 1/128=0.078, 1/64=0.0156, 1/32=0.0312, 1/16=0.0624, 1/8=0.125)

# ==============================================
# Sensor Managers
# ==============================================
SN.node[**].SensorManagerName = "WiseCameraManager"
SN.node[**].SensorManager.fov_type = "bounding_box"
SN.node[**].SensorManager.fov_bb_width = 40.000000
SN.node[**].SensorManager.fov_bb_height = 40.000000
#SN.node[**].SensorManager.collectTraceInfo = true
SN.node[**].SensorManager.collectTraceInfo = false

# ==============================================
# Resource Managers (cpu, memory, energy)
# ==============================================
### Note: 'sigmaCPUClockDrift = 0' means NO drift (ideal)
SN.node[**].ResourceManager.sigmaCPUClockDrift = 0.000000

# ==============================================
# Communication: DUMMY Wireless Channel (if used)
# ==============================================
SN.dummyChannel.collectTraceInfo = false
 
# ==============================================
# Communication: Wireless Channel
# ==============================================
### Ideal wireless channel (unit disk model)
SN.wirelessChannel.sigma = 0
SN.wirelessChannel.bidirectionalSigma = 0
#SN.wirelessChannel.PLd0 = TODO
SN.wirelessChannel.collectTraceInfo = false
 
# ==============================================
# Communication: Radio (Physical Layer)
# ==============================================
### Ideal radio parameters... 
SN.node[**].Communication.Radio.RadioParametersFile = "../BasicRadio.txt"
SN.node[**].Communication.Radio.mode = "IDEAL"
SN.node[**].Communication.Radio.collisionModel = 2  # 0:None  1:Simplistic  2:Additive
SN.node[**].Communication.Radio.maxPhyFrameSize = 0 # no limits
SN.node[**].Communication.Radio.phyFrameOverhead = 0 
 
# ==============================================
# Communication: MAC (Datalink Layer)
# ==============================================
### MAC without overhaead (ideal)
SN.node[**].Communication.MAC.macPacketOverhead = 0

#SN.node[**].Communication.MACProtocolName = "TunableMAC"
#SN.node[**].Communication.MAC.randomTxOffset = 0
#SN.node[**].Communication.MAC.numTx = 1

#### S-MAC configuration of T-MAC
#SN.node[**].Communication.MACProtocolName = "TMAC"
#SN.node[**].Communication.MAC.listenTimeout = 61
#SN.node[**].Communication.MAC.disableTAextension = true
#SN.node[**].Communication.MAC.conservativeTA = false
#SN.node[**].Communication.MAC.collisionResolution = 0


### My configuration for T-MAC
SN.node[**].Communication.MACProtocolName = "TMAC"
SN.node[**].Communication.MAC.maxTxRetries = 10
SN.node[**].Communication.MAC.allowSinkSync = false

# ==============================================
# Communication: Routing (Network Layer)
# ==============================================
### Routing without overhaead (ideal)
SN.node[**].Communication.Routing.netDataFrameOverhead = 0

#SN.node[**].Communication.**.collectTraceInfo = true
SN.node[**].Communication.**.collectTraceInfo = false

# ==============================================
# Nodes  
# ==============================================
SN.node[**].zCoor = 0.00
SN.node[**].phi = 0.00
SN.node[**].theta = 0.00

SN.node[0].xCoor = 135.11
SN.node[0].yCoor = 90.95

SN.node[1].xCoor = 67.29
SN.node[1].yCoor = 31.07

SN.node[2].xCoor = 25.80
SN.node[2].yCoor = 48.59

SN.node[3].xCoor = 125.41
SN.node[3].yCoor = 36.40

SN.node[4].xCoor = 76.26
SN.node[4].yCoor = 72.01

SN.node[5].xCoor = 145.30
SN.node[5].yCoor = 60.56

SN.node[6].xCoor = 45.09
SN.node[6].yCoor = 80.70

SN.node[7].xCoor = 98.94
SN.node[7].yCoor = 30.06

SN.node[8].xCoor = 30.56
SN.node[8].yCoor = 17.93
