
### ------------------------------------------------------------------------ ###
### demo2_peopleREID: DEMO FOR REIDENTIFICATION
### 
### Description: Demo for people detection & descriptor transmission.
###				 Camera(s) detect people in video and sends data to other camera that
###				 acts as a sink and receives the data.
###				 Two datasets are employed: HDA & PETS 2009-S2-L1
###
### Available simulations extending the configuration in [General]:none
### 			
###
### Please cite the following reference when publishing results obtained with WiseMnet:
###   J. SanMiguel & A. Cavallaro,
###   "Networked Computer Vision: the importance of a holistic simulator",
###   IEEE Computer, 50(7):35-43, Jul 2017, http://ieeexplore.ieee.org/document/7971873/		
###
### Date: 2015-06-01 (updated 2017-06-13, 2017-09-10)
### Author: juancarlos.sanmiguel@uam.es (Universidad Autonoma de Madrid)
### 
### ------------------------------------------------------------------------ ###
[General]
include ../WiseCastalia.ini 	# ALWAYS include the WiseCastalia.ini file

# ==============================================
# Simulation setup
# ==============================================
sim-time-limit = 1500s	# simulation duration
#sim-time-limit = ${ti=30s,20s,10s} #uncomment to run experiments 
SN.deployment = "center"
 
SN.use_calibration = true			#flag to indicate if the scenario contains calibration data

#GUI to visualize user-provided calibration data/map
SN.TerrainName = "WiseTerrainCalibrated"
SN.wiseTerrain.gui = "opencv"			#type of GUI (current version only supports "opencv")
SN.wiseTerrain.gui_wait_start = false 	#press-key to start simulation
#SN.wiseTerrain.preview_network = true  	#shows a preview of teh camera network setup (FOVs, and others...)
SN.wiseTerrain.gui_show = true		  	#shows a cenital view of the network & moving targets
SN.wiseTerrain.draw_trajectory = false  #shows trajectories of moving targets
SN.wiseTerrain.scale_world = 0.005	#factor to increase (>1) or decrease (<1) the GUI size (world image)
SN.wiseTerrain.GPmap_path =  "../../../videos/HDA_Dataset_V1.3/hda_homographies/floor8v3.png" #path for ground-plane image

# ==============================================
# Communication: Wireless Channel
# ==============================================
SN.dummy_communication = true 			#'false'=enable the wireless communication pipeline 
SN.dummyChannel.collectTraceInfo = true	#enable trace log information in "wise-trace.txt"

### Ideal wireless channel (unit disk model)
SN.wirelessChannel.sigma = 0
SN.wirelessChannel.bidirectionalSigma = 0
SN.wirelessChannel.PLd0 = -172

# ==============================================
# Physical Process (environment's events) 
# ==============================================
SN.physicalProcessName = "WiseVideoFile"	#type of sensor (video file)
#SN.physicalProcess[**].frame_rate = -1 		#if frame_rate = -1, the source frame_rate is employed
#SN.physicalProcess[**].resize = -1			#if resize = -1, the source resolution is employed
#SN.physicalProcess[**].show_video = false	#flag to show input video (use 'true' for debug purposes)
#SN.physicalProcess[0].show_video = true	#flag to show input video (use 'true' for debug purposes)

# ==============================================
# Node: Application 
# ==============================================
SN.node[**].ApplicationName = "WiseMultiCameraPeriodicApp_ReID"	#application type
SN.node[**].Application.applicationID = "demo2_PeopleReID"		#application name
SN.node[**].Application.neighborDiscoverCOM = false			#discovery of network cameras using communications	
SN.node[**].Application.neighborDiscoverFOVoverlap = false	#discovery of network cameras using FOV spatial overlap
SN.node[**].Application.collectTraceInfo = true				#enable trace log information in "wise-trace.txt"
SN.node[**].Application.fullConnectivityCOM = true			#camera nodes are fully connected (i.e. wired network)

SN.node[**].Application.pause_execution = false			#pause the execution for each frame so the result can be visualized
SN.node[**].Application.pause_place_GUI = true			#pause the initialization so the user can place the GUIs/windows

#reidentification-specific parameters
SN.node[**].Application.dataTypeTX = 4 					#send descriptors - compression enabled
SN.node[**].Application.sinkNode=0						#node with ID=0 is the sink
SN.node[**].Application.extractGabor = true
SN.node[**].Application.extractRGB = true

#SN.node[**].Application.sensing_mode = "REAL_PERIOD" 	#frames captured each 'sampling_time', considers processing time
#SN.node[**].Application.sensing_mode = "REAL_DEMAND" 	#frames captured after processing, considers processing time
SN.node[**].Application.sensing_mode = "IDEAL"			#frames captured each 'sampling_time', does not consider processing time

# ==============================================
# Node: Sensor Manager
# ==============================================
SN.node[**].SensorManagerName = "WiseCameraManager"
SN.node[**].SensorManager.fov_type = "directional"
SN.node[**].SensorManager.type_src = "Video"

# ==============================================
# Node: Resource Managers (cpu, memory, energy)
# ==============================================
### Note: 'sigmaCPUClockDrift = 0' means NO drift (ideal)
SN.node[**].ResourceManager.sigmaCPUClockDrift = 0.0
SN.node[**].ResourceManager.CPUmodel = "../../../models/CPU/CPU_ARM-Cortex-A9.dat"    
SN.node[**].ResourceManager.SENmodel = "../../../models/SEN/SEN_B3.dat"
SN.node[**].ResourceManager.COMmodel = "../../../models/COM/CC2420.txt"
SN.node[**].ResourceManager.CPUfreq = 1.5e9
SN.node[**].ResourceManager.SENfreq = 24e6
SN.node[**].ResourceManager.initialEnergy = 10000
SN.node[**].ResourceManager.optimizationFactor = 4
SN.node[**].ResourceManager.displayData = 1 #"-1" for nothing, "0" means to show time execution stats, "1" is for bandwidth stats

# ==============================================
# Node: Communication: Radio (Physical Layer)
# ==============================================
### Ideal radio parameters... 
SN.node[**].Communication.Radio.RadioParametersFile = "../../../models/COM/CC2420.txt"
SN.node[**].Communication.Radio.mode = "IDEAL"
SN.node[**].Communication.Radio.collisionModel = 0  # 0:None  1:Simplistic  2:Additive
SN.node[**].Communication.Radio.maxPhyFrameSize = 0 # no limits
SN.node[**].Communication.Radio.phyFrameOverhead = 0 
 
# ==============================================
# Node: Communication: MAC (Datalink Layer)
# ==============================================
SN.node[**].Communication.MAC.macPacketOverhead = 0 # MAC without overhaead (ideal)
SN.node[**].Communication.MACProtocolName = "TMAC"
SN.node[**].Communication.MAC.maxTxRetries = 10
SN.node[**].Communication.MAC.allowSinkSync = false

# ==============================================
# Node: Communication: Routing (Network Layer)
# ==============================================
### Routing without overhaead (ideal)
SN.node[**].Communication.Routing.netDataFrameOverhead = 0
SN.node[**].Communication.**.collectTraceInfo = true

# =====================================================================
# CONFIGURATION: POSE THE REIDENTIFICATION PROBLEM 
# =====================================================================
[Config HDA_floor8lite_desc]
SN.numNodes = 3	# number of camera nodes (i.e. available views)

#world coordinates (in meters)  from http://www.milanton.de/data/
SN.xmax = 5000			#maximum X-coordinate of the world (milimeters)
SN.xmin = -15000		#minimum X-coordinate of the world (milimeters)
SN.ymax = 12000		#maximum Y-coordinate of the world (milimeters)
SN.ymin = -8000		#minimum Y-coordinate of the world (milimeters)

SN.node[**].Application.pause_execution = false
SN.node[**].Application.show_gtruth = false
SN.node[**].Application.use_gt_detections=true
SN.node[**].Application.show_internals = true

SN.node[**].Application.sampling_time = 1/5				# no missed frames if "IDEAL" sensing_mode is selected

SN.node[0].Application.camID = "0" #camera ID given by HDA dataset
SN.node[1].Application.camID = "19" #camera ID given by HDA dataset
SN.node[2].Application.camID = "40" #camera ID given by HDA dataset
SN.node[**].Application.formatGT = "HDA"					#ground-truth format (see descriptions in WiseGTreader.cc)
SN.node[1].Application.filenameGT = "../../../videos/HDA_Dataset_V1.3/hda_detections/GtAnnotationsClean/camera19/Detections/allD.txt" #ground-truth detections associated to camera 0
SN.node[2].Application.filenameGT = "../../../videos/HDA_Dataset_V1.3/hda_detections/GtAnnotationsClean/camera40/Detections/allD.txt" #ground-truth detections associated to camera 0

#calibration information
#SN.node[**].SensorManager.calib_world2map_filename = "" #we do not have calibration for world -> ground-plane image
SN.node[**].SensorManager.calib_type = "homography"		#calibration type tsai (http://homepages.inf.ed.ac.uk/rbf/CVonline/LOCAL_COPIES/DIAS1/)
SN.node[0].SensorManager.calib_filename = "../../../videos/HDA_Dataset_V1.3/hda_homographies/cam19homography.xml" #not used (sink node)
SN.node[1].SensorManager.calib_filename = "../../../videos/HDA_Dataset_V1.3/hda_homographies/cam19homography.xml" #calibration file for camera 19
SN.node[2].SensorManager.calib_filename = "../../../videos/HDA_Dataset_V1.3/hda_homographies/cam40homography.xml" #calibration file for camera 40

#video inputs 
SN.numPhysicalProcesses = 3 				#number of camera sensors (i.e. video files captured by each node)
SN.physicalProcess[**].frame_rate = 5
SN.physicalProcess[0].file_name = "../../../videos/HDA_Dataset_V1.3/hda_image_sequences_matlab/camera19.avi"#not used (sink node)
SN.physicalProcess[1].file_name = "../../../videos/HDA_Dataset_V1.3/hda_image_sequences_matlab/camera19.avi"#video file
SN.physicalProcess[2].file_name = "../../../videos/HDA_Dataset_V1.3/hda_image_sequences_matlab/camera40.avi"#video file
SN.physicalProcess[2].waitFrames = 67

# =====================================================================
# CONFIGURATION: TX/RX DESCRIPTORS AND ASSOCIATED BANDWIDTH
# =====================================================================
[Config HDA_floor8lite_TXdesc] #compressed RGB/Texture descriptors
SN.numNodes = 2	# number of camera nodes (i.e. available views)

#world coordinates (in meters)  from http://www.milanton.de/data/
SN.xmax = 5000			#maximum X-coordinate of the world (milimeters)
SN.xmin = -15000		#minimum X-coordinate of the world (milimeters)
SN.ymax = 12000		#maximum Y-coordinate of the world (milimeters)
SN.ymin = -8000		#minimum Y-coordinate of the world (milimeters)

SN.node[**].Application.show_gtruth = false
SN.node[**].Application.formatGT = "HDA"					#ground-truth format (see descriptions in WiseGTreader.cc)
SN.node[1].Application.filenameGT = "../../../videos/HDA_Dataset_V1.3/hda_detections/GtAnnotationsClean/camera18/Detections/allD.txt" #ground-truth detections associated to camera 0
SN.node[0].Application.camID = "0" #camera ID given by HDA dataset
SN.node[1].Application.camID = "18" #camera ID given by HDA dataset
SN.node[1].Application.use_gt_detections=true
SN.node[**].Application.show_internals = false
SN.node[**].Application.show_sink = true

SN.node[**].Application.sampling_time = 1/5				# no missed frames if "IDEAL" sensing_mode is selected

#calibration information
#SN.node[**].SensorManager.calib_world2map_filename = "" #we do not have calibration for world -> ground-plane image
SN.node[**].SensorManager.calib_type = "homography"		#calibration type tsai (http://homepages.inf.ed.ac.uk/rbf/CVonline/LOCAL_COPIES/DIAS1/)
SN.node[0].SensorManager.calib_filename = "../../../videos/HDA_Dataset_V1.3/hda_homographies/cam18homography.xml" #not used (sink node)
SN.node[1].SensorManager.calib_filename = "../../../videos/HDA_Dataset_V1.3/hda_homographies/cam18homography.xml" #calibration file for camera 17

#video inputs 
SN.numPhysicalProcesses = 2 				#number of camera sensors (i.e. video files captured by each node)
SN.physicalProcess[**].frame_rate = 5
SN.physicalProcess[0].file_name = "../../../videos/HDA_Dataset_V1.3/hda_image_sequences_matlab/camera18.avi"#not used (sink node)
SN.physicalProcess[1].file_name = "../../../videos/HDA_Dataset_V1.3/hda_image_sequences_matlab/camera18.avi"#video file

# =========================================================================
# CONFIGURATION: TX/RX JPEG FRAMES AND ASSOCIATED BANDWIDTH (low HW profile)
# =========================================================================
[Config HDA_floor8lite_TXframesv1]#JPEG frames
SN.numNodes = 2	# number of camera nodes (i.e. available views)

#world coordinates (in meters)  from http://www.milanton.de/data/
SN.xmax = 5000			#maximum X-coordinate of the world (milimeters)
SN.xmin = -15000		#minimum X-coordinate of the world (milimeters)
SN.ymax = 12000		#maximum Y-coordinate of the world (milimeters)
SN.ymin = -8000		#minimum Y-coordinate of the world (milimeters)

SN.node[**].Application.dataTypeTX = 2					#send JPEG frames

SN.node[**].Application.show_gtruth = false
SN.node[**].Application.formatGT = "HDA"					#ground-truth format (see descriptions in WiseGTreader.cc)
SN.node[1].Application.filenameGT = "../../../videos/HDA_Dataset_V1.3/hda_detections/GtAnnotationsClean/camera18/Detections/allD.txt" #ground-truth detections associated to camera 0
SN.node[0].Application.camID = "0" #camera ID given by HDA dataset
SN.node[1].Application.camID = "18" #camera ID given by HDA dataset
SN.node[1].Application.use_gt_detections=true
SN.node[**].Application.show_internals = false
SN.node[**].Application.show_sink = true
SN.node[**].Application.sampling_time = 1/5				# no missed frames if "IDEAL" sensing_mode is selected

#calibration information
#SN.node[**].SensorManager.calib_world2map_filename = "" #we do not have calibration for world -> ground-plane image
SN.node[**].SensorManager.calib_type = "homography"		#calibration type tsai (http://homepages.inf.ed.ac.uk/rbf/CVonline/LOCAL_COPIES/DIAS1/)
SN.node[0].SensorManager.calib_filename = "../../../videos/HDA_Dataset_V1.3/hda_homographies/cam18homography.xml" #not used (sink node)
SN.node[1].SensorManager.calib_filename = "../../../videos/HDA_Dataset_V1.3/hda_homographies/cam18homography.xml" #calibration file for camera 17

#video inputs 
SN.numPhysicalProcesses = 2 				#number of camera sensors (i.e. video files captured by each node)
SN.physicalProcess[**].frame_rate = 5
SN.physicalProcess[0].file_name = "../../../videos/HDA_Dataset_V1.3/hda_image_sequences_matlab/camera18.avi"#not used (sink node)
SN.physicalProcess[1].file_name = "../../../videos/HDA_Dataset_V1.3/hda_image_sequences_matlab/camera18.avi"#video file

# =========================================================================
# CONFIGURATION: TX/RX JPEG FRAMES AND ASSOCIATED BANDWIDTH (high HW profile)
# =========================================================================
[Config HDA_floor8lite_TXframesv2]#JPEG frames with improved communication model/hardware
SN.numNodes = 2	# number of camera nodes (i.e. available views)

#world coordinates (in meters)  from http://www.milanton.de/data/
SN.xmax = 5000			#maximum X-coordinate of the world (milimeters)
SN.xmin = -15000		#minimum X-coordinate of the world (milimeters)
SN.ymax = 12000		#maximum Y-coordinate of the world (milimeters)
SN.ymin = -8000		#minimum Y-coordinate of the world (milimeters)

SN.node[**].ResourceManager.COMmodel = "../../../models/COM/wifi.txt"
SN.node[**].Communication.Radio.RadioParametersFile = "../../../models/COM/wifi.txt"

SN.node[**].Application.dataTypeTX = 2					#send descriptors - compression enabled

SN.node[**].Application.show_gtruth = false
SN.node[**].Application.formatGT = "HDA"					#ground-truth format (see descriptions in WiseGTreader.cc)
SN.node[1].Application.filenameGT = "../../../videos/HDA_Dataset_V1.3/hda_detections/GtAnnotationsClean/camera18/Detections/allD.txt" #ground-truth detections associated to camera 0
SN.node[0].Application.camID = "0" #camera ID given by HDA dataset
SN.node[1].Application.camID = "18" #camera ID given by HDA dataset
SN.node[1].Application.use_gt_detections=true
SN.node[**].Application.show_internals = false
SN.node[**].Application.show_sink = true
SN.node[**].Application.sampling_time = 1/5				# no missed frames if "IDEAL" sensing_mode is selected

#calibration information
#SN.node[**].SensorManager.calib_world2map_filename = "" #we do not have calibration for world -> ground-plane image
SN.node[**].SensorManager.calib_type = "homography"		#calibration type tsai (http://homepages.inf.ed.ac.uk/rbf/CVonline/LOCAL_COPIES/DIAS1/)
SN.node[0].SensorManager.calib_filename = "../../../videos/HDA_Dataset_V1.3/hda_homographies/cam18homography.xml" #not used (sink node)
SN.node[1].SensorManager.calib_filename = "../../../videos/HDA_Dataset_V1.3/hda_homographies/cam18homography.xml" #calibration file for camera 17

#video inputs 
SN.numPhysicalProcesses = 2 				#number of camera sensors (i.e. video files captured by each node)
SN.physicalProcess[**].frame_rate = 5
SN.physicalProcess[0].file_name = "../../../videos/HDA_Dataset_V1.3/hda_image_sequences_matlab/camera18.avi"#not used (sink node)
SN.physicalProcess[1].file_name = "../../../videos/HDA_Dataset_V1.3/hda_image_sequences_matlab/camera18.avi"#video file

# =========================================================================
# CONFIGURATION: MULTICAMERA REIDENTIFICATION WITH LOW CROWD DENSITY
# =========================================================================
[Config HDA_full]
SN.numNodes = 13	# number of camera nodes (i.e. available views)

#world coordinates (in meters)  from http://www.milanton.de/data/
SN.xmax = 5000			#maximum X-coordinate of the world (milimeters)
SN.xmin = -15000		#minimum X-coordinate of the world (milimeters)
SN.ymax = 12000		#maximum Y-coordinate of the world (milimeters)
SN.ymin = -8000		#minimum Y-coordinate of the world (milimeters)

SN.node[**].Application.pause_execution = false
SN.node[**].Application.show_gtruth = false
SN.node[**].Application.use_gt_detections=true
SN.node[**].Application.show_internals = false
SN.node[**].Application.pause_place_GUI = false
SN.node[**].Application.show_sink = true

SN.node[**].Application.sampling_time = 1/5				# no missed frames if "IDEAL" sensing_mode is selected
SN.node[**].Application.dataTypeTX = 4					#send descriptors - compression enabled

SN.node[0].Application.camID = "0" #camera ID given by HDA dataset

SN.node[1].Application.camID = "19" #camera ID given by HDA dataset
SN.node[2].Application.camID = "40" #camera ID given by HDA dataset
SN.node[3].Application.camID = "18" #camera ID given by HDA dataset
SN.node[4].Application.camID = "17" #camera ID given by HDA dataset
SN.node[5].Application.camID = "59" #camera ID given by HDA dataset

SN.node[6].Application.camID = "50" #camera ID given by HDA dataset
SN.node[7].Application.camID = "53" #camera ID givn by HDA dataset
SN.node[8].Application.camID = "54" #camera ID given by HDA dataset
SN.node[9].Application.camID = "56" #camera ID given by HDA dataset
SN.node[10].Application.camID = "57" #camera ID given by HDA dataset
SN.node[11].Application.camID = "58" #camera ID given by HDA dataset
SN.node[12].Application.camID = "60" #camera ID given by HDA dataset

SN.node[**].Application.formatGT = "HDA"					#ground-truth format (see descriptions in WiseGTreader.cc)
SN.node[1].Application.filenameGT = "../../../videos/HDA_Dataset_V1.3/hda_detections/GtAnnotationsClean/camera19/Detections/allD.txt" #ground-truth detections associated to camera 0
SN.node[2].Application.filenameGT = "../../../videos/HDA_Dataset_V1.3/hda_detections/GtAnnotationsClean/camera40/Detections/allD.txt" #ground-truth detections associated to camera 0
SN.node[3].Application.filenameGT = "../../../videos/HDA_Dataset_V1.3/hda_detections/GtAnnotationsClean/camera18/Detections/allD.txt" #ground-truth detections associated to camera 0
SN.node[4].Application.filenameGT = "../../../videos/HDA_Dataset_V1.3/hda_detections/GtAnnotationsClean/camera17/Detections/allD.txt" #ground-truth detections associated to camera 0
SN.node[5].Application.filenameGT = "../../../videos/HDA_Dataset_V1.3/hda_detections/GtAnnotationsClean/camera59/Detections/allD.txt" #ground-truth detections associated to camera 0
SN.node[6].Application.filenameGT = "../../../videos/HDA_Dataset_V1.3/hda_detections/GtAnnotationsClean/camera50/Detections/allD.txt" #ground-truth detections associated to camera 0
SN.node[7].Application.filenameGT = "../../../videos/HDA_Dataset_V1.3/hda_detections/GtAnnotationsClean/camera53/Detections/allD.txt" #ground-truth detections associated to camera 0
SN.node[8].Application.filenameGT = "../../../videos/HDA_Dataset_V1.3/hda_detections/GtAnnotationsClean/camera54/Detections/allD.txt" #ground-truth detections associated to camera 0
SN.node[9].Application.filenameGT = "../../../videos/HDA_Dataset_V1.3/hda_detections/GtAnnotationsClean/camera56/Detections/allD.txt" #ground-truth detections associated to camera 0
SN.node[10].Application.filenameGT = "../../../videos/HDA_Dataset_V1.3/hda_detections/GtAnnotationsClean/camera57/Detections/allD.txt" #ground-truth detections associated to camera 0
SN.node[11].Application.filenameGT = "../../../videos/HDA_Dataset_V1.3/hda_detections/GtAnnotationsClean/camera58/Detections/allD.txt" #ground-truth detections associated to camera 0
SN.node[12].Application.filenameGT = "../../../videos/HDA_Dataset_V1.3/hda_detections/GtAnnotationsClean/camera60/Detections/allD.txt" #ground-truth detections associated to camera 0

#calibration information
#SN.node[**].SensorManager.calib_world2map_filename = "" #we do not have calibration for world -> ground-plane image
SN.node[**].SensorManager.calib_type = "homography"		#calibration type tsai (http://homepages.inf.ed.ac.uk/rbf/CVonline/LOCAL_COPIES/DIAS1/)
SN.node[0].SensorManager.calib_filename = "../../../videos/HDA_Dataset_V1.3/hda_homographies/cam19homography.xml" #not used (sink node)
SN.node[1].SensorManager.calib_filename = "../../../videos/HDA_Dataset_V1.3/hda_homographies/cam19homography.xml" #calibration file for camera 19
SN.node[2].SensorManager.calib_filename = "../../../videos/HDA_Dataset_V1.3/hda_homographies/cam40homography.xml" #calibration file for camera 40
SN.node[3].SensorManager.calib_filename = "../../../videos/HDA_Dataset_V1.3/hda_homographies/cam18homography.xml" #calibration file for camera 40
SN.node[4].SensorManager.calib_filename = "../../../videos/HDA_Dataset_V1.3/hda_homographies/cam17homography.xml" #calibration file for camera 40
SN.node[5].SensorManager.calib_filename = "../../../videos/HDA_Dataset_V1.3/hda_homographies/cam59homography.xml" #calibration file for camera 40
SN.node[6].SensorManager.calib_filename = "../../../videos/HDA_Dataset_V1.3/hda_homographies/cam50homography.xml" #calibration file for camera 40
SN.node[7].SensorManager.calib_filename = "../../../videos/HDA_Dataset_V1.3/hda_homographies/cam53homography.xml" #calibration file for camera 40
SN.node[8].SensorManager.calib_filename = "../../../videos/HDA_Dataset_V1.3/hda_homographies/cam54homography.xml" #calibration file for camera 40
SN.node[9].SensorManager.calib_filename = "../../../videos/HDA_Dataset_V1.3/hda_homographies/cam56homography.xml" #calibration file for camera 40
SN.node[10].SensorManager.calib_filename = "../../../videos/HDA_Dataset_V1.3/hda_homographies/cam57homography.xml" #calibration file for camera 40
SN.node[11].SensorManager.calib_filename = "../../../videos/HDA_Dataset_V1.3/hda_homographies/cam58homography.xml" #calibration file for camera 40
SN.node[12].SensorManager.calib_filename = "../../../videos/HDA_Dataset_V1.3/hda_homographies/cam60homography.xml" #calibration file for camera 40

#video inputs 
SN.numPhysicalProcesses = 13 				#number of camera sensors (i.e. video files captured by each node)
SN.physicalProcess[0].file_name = "../../../videos/HDA_Dataset_V1.3/hda_image_sequences_matlab/camera19.avi"#not used (sink node)
SN.physicalProcess[1].file_name = "../../../videos/HDA_Dataset_V1.3/hda_image_sequences_matlab/camera19.avi"#video file
SN.physicalProcess[1].frame_rate = 5
SN.physicalProcess[1].waitFrames = 45
SN.physicalProcess[2].file_name = "../../../videos/HDA_Dataset_V1.3/hda_image_sequences_matlab/camera40.avi"#video file
SN.physicalProcess[2].frame_rate = 5
SN.physicalProcess[2].waitFrames = 115
SN.physicalProcess[3].file_name = "../../../videos/HDA_Dataset_V1.3/hda_image_sequences_matlab/camera18.avi"#video file
SN.physicalProcess[3].frame_rate = 5
SN.physicalProcess[3].waitFrames = 25
SN.physicalProcess[4].file_name = "../../../videos/HDA_Dataset_V1.3/hda_image_sequences_matlab/camera17.avi"#video file
SN.physicalProcess[4].frame_rate = 5
SN.physicalProcess[4].waitFrames = 0
SN.physicalProcess[5].file_name = "../../../videos/HDA_Dataset_V1.3/hda_image_sequences_matlab/camera59.avi"#video file
SN.physicalProcess[5].frame_rate = 2
SN.physicalProcess[5].waitFrames = 380
SN.physicalProcess[6].file_name = "../../../videos/HDA_Dataset_V1.3/hda_image_sequences_matlab/camera50.avi"#video file
SN.physicalProcess[6].frame_rate = 2 
SN.physicalProcess[6].waitFrames = 67#to be fixed
SN.physicalProcess[7].file_name = "../../../videos/HDA_Dataset_V1.3/hda_image_sequences_matlab/camera53.avi"#video file
SN.physicalProcess[7].frame_rate = 2 
SN.physicalProcess[7].waitFrames = 67#to be fixed
SN.physicalProcess[8].file_name = "../../../videos/HDA_Dataset_V1.3/hda_image_sequences_matlab/camera54.avi"#video file
SN.physicalProcess[8].frame_rate = 2 
SN.physicalProcess[8].waitFrames = 67#to be fixed
SN.physicalProcess[9].file_name = "../../../videos/HDA_Dataset_V1.3/hda_image_sequences_matlab/camera56.avi"#video file
SN.physicalProcess[9].frame_rate = 2 
SN.physicalProcess[9].waitFrames = 67#to be fixed
SN.physicalProcess[10].file_name = "../../../videos/HDA_Dataset_V1.3/hda_image_sequences_matlab/camera57.avi"#video file
SN.physicalProcess[10].frame_rate = 2
SN.physicalProcess[10].waitFrames = 67#to be fixed
SN.physicalProcess[11].file_name = "../../../videos/HDA_Dataset_V1.3/hda_image_sequences_matlab/camera58.avi"#video file
SN.physicalProcess[11].frame_rate = 2
SN.physicalProcess[11].waitFrames = 67#to be fixed
SN.physicalProcess[12].file_name = "../../../videos/HDA_Dataset_V1.3/hda_image_sequences_matlab/camera60.avi"#video file
SN.physicalProcess[12].frame_rate = 1
SN.physicalProcess[12].waitFrames = 67#to be fixed


# =========================================================================
# CONFIGURATION: MULTICAMERA REIDENTIFICATION WITH MEDIUM CROWD DENSITY
# =========================================================================
[Config PETS09_S2L1]
SN.numNodes = 7	# number of camera nodes (i.e. available views)

#world coordinates (in meters)  from http://www.milanton.de/data/
SN.xmax = 70000			#maximum X-coordinate of the world (milimeters)
SN.xmin = -20000	#minimum X-coordinate of the world (milimeters)
SN.ymax = 115000			#maximum Y-coordinate of the world (milimeters)
SN.ymin = -25000		#minimum Y-coordinate of the world (milimeters)
 
SN.wiseTerrain.scale_world = 0.005	#factor to increase (>1) or decrease (<1) the GUI size (world image)
SN.wiseTerrain.GPmap_path =  "../../../videos/Crowd_PETS09/S2/L1/PETS2009_map.png" #path for ground-plane image

SN.node[**].Application.pause_execution = false
SN.node[**].Application.show_gtruth = false
SN.node[**].Application.use_gt_detections=false
SN.node[**].Application.show_internals = false
SN.node[**].Application.pause_place_GUI = false
SN.node[**].Application.show_sink = true

SN.node[**].Application.sampling_time = 1/7				# no missed frames if "IDEAL" sensing_mode is selected
SN.node[**].Application.dataTypeTX = 4					#send descriptors - compression enabled

#calibration information
#SN.node[**].SensorManager.calib_world2map_filename = "" #we do not have calibration for world -> ground-plane image
SN.node[**].SensorManager.calib_type = "tsai"		#calibration type tsai (http://homepages.inf.ed.ac.uk/rbf/CVonline/LOCAL_COPIES/DIAS1/)
SN.node[0].SensorManager.calib_filename = "../../../videos/Crowd_PETS09/S2/L1/view001_calib.xml" #calibration file for camera 001
SN.node[1].SensorManager.calib_filename = "../../../videos/Crowd_PETS09/S2/L1/view003_calib.xml" #calibration file for camera 004
SN.node[2].SensorManager.calib_filename = "../../../videos/Crowd_PETS09/S2/L1/view004_calib.xml" #calibration file for camera 004
SN.node[3].SensorManager.calib_filename = "../../../videos/Crowd_PETS09/S2/L1/view005_calib.xml" #calibration file for camera 005
SN.node[4].SensorManager.calib_filename = "../../../videos/Crowd_PETS09/S2/L1/view006_calib.xml" #calibration file for camera 006
SN.node[5].SensorManager.calib_filename = "../../../videos/Crowd_PETS09/S2/L1/view007_calib.xml" #calibration file for camera 007
SN.node[6].SensorManager.calib_filename = "../../../videos/Crowd_PETS09/S2/L1/view008_calib.xml" #calibration file for camera 008

#video inputs 
SN.numPhysicalProcesses = 7 				#number of camera sensors (i.e. video files captured by each node)
SN.physicalProcess[0].file_name = "../../../videos/Crowd_PETS09/S2/L1/view001_7fps_mpeg4.avi"
SN.physicalProcess[1].file_name = "../../../videos/Crowd_PETS09/S2/L1/view003_7fps_mpeg4.avi"
SN.physicalProcess[2].file_name = "../../../videos/Crowd_PETS09/S2/L1/view004_7fps_mpeg4.avi"
SN.physicalProcess[3].file_name = "../../../videos/Crowd_PETS09/S2/L1/view005_7fps_mpeg4.avi"
SN.physicalProcess[4].file_name = "../../../videos/Crowd_PETS09/S2/L1/view006_7fps_mpeg4.avi"
SN.physicalProcess[5].file_name = "../../../videos/Crowd_PETS09/S2/L1/view007_7fps_mpeg4.avi"
SN.physicalProcess[6].file_name = "../../../videos/Crowd_PETS09/S2/L1/view008_7fps_mpeg4.avi"
SN.physicalProcess[**].frame_rate = 7
