### ------------------------------------------------------------------------ ###
### demo5_multivideo: 
### 
### Description: demo for multicamera processing
###
### Available sub-configurations: none
###
### Date: 2017-09-11
### Author: juancarlos.sanmiguel@uam.es (Universidad Autonoma de Madrid)
### 
### ------------------------------------------------------------------------ ###
[General]
include ../WiseCastalia.ini 	# ALWAYS include the WiseCastalia.ini file

# ==============================================
# Simulation setup
# ==============================================
sim-time-limit = 30s	# simulation duration
#sim-time-limit = ${ti=30s,20s,10s} #uncomment to run experiments 
SN.deployment = "center"

SN.use_calibration = true			#flag to indicate if the scenario contains calibration data

#GUI to visualize user-provided calibration data/map
SN.TerrainName = "WiseTerrainCalibrated"
SN.wiseTerrain.gui = "opencv"			#type of GUI (current version only supports "opencv")
SN.wiseTerrain.gui_wait_start = false 	#press-key to start simulation
SN.wiseTerrain.gui_show = true		  	#shows a cenital view of the network & moving targets
SN.wiseTerrain.draw_trajectory = false  #shows trajectories of moving targets

# ==============================================
# Communication: Wireless Channel
# ==============================================
SN.dummy_communication = true 			#'false'=enable the wireless communication pipeline 
SN.dummyChannel.collectTraceInfo = true	#enable trace log information in "wise-trace.txt"

### Ideal wireless channel (unit disk model)
SN.wirelessChannel.sigma = 0
SN.wirelessChannel.bidirectionalSigma = 0
SN.wirelessChannel.PLd0 = -172

# ==============================================
# Physical Process (environment's events) 
# ==============================================
SN.physicalProcessName = "WiseVideoFile"	#type of sensor (video file)
SN.physicalProcess[**].frame_rate = -1 		#if frame_rate = -1, the source frame_rate is employed
SN.physicalProcess[**].resize = -1			#if resize = -1, the source resolution is employed
#SN.physicalProcess[**].show_video = false	#flag to show input video (use 'true' for debug purposes)
#SN.physicalProcess[0].show_video = true	#flag to show input video (use 'true' for debug purposes)

# ==============================================
# Node: Application 
# ==============================================
SN.node[**].ApplicationName = "WiseCameraPeriodicAppTracker"	#application type
SN.node[**].Application.applicationID = "demo5_multivideo"		#application name
SN.node[**].Application.neighborDiscoverCOM = false			#discovery of network cameras using communications	
SN.node[**].Application.neighborDiscoverFOVoverlap = false	#discovery of network cameras using FOV spatial overlap
SN.node[**].Application.collectTraceInfo = true				#enable trace log information in "wise-trace.txt"
SN.node[**].Application.fullConnectivityCOM = true			#camera nodes are fully connected (i.e. wired network)
SN.node[**].Application.sampling_time = 1/25				# no missed frames if "IDEAL" sensing_mode is selected

#SN.node[**].Application.sensing_mode = "REAL_PERIOD" 	#frames captured each 'sampling_time', considers processing time
#SN.node[**].Application.sensing_mode = "REAL_DEMAND" 	#frames captured after processing, considers processing time
SN.node[**].Application.sensing_mode = "IDEAL"			#frames captured each 'sampling_time', does not consider processing time

# ==============================================
# Node: Sensor Manager
# ==============================================
SN.node[**].SensorManagerName = "WiseCameraManager"
SN.node[**].SensorManager.fov_type = "directional"
SN.node[**].SensorManager.type_src = "Video"


# ==============================================
# Node: Resource Managers (cpu, memory, energy)
# ==============================================
### Note: 'sigmaCPUClockDrift = 0' means NO drift (ideal)
SN.node[**].ResourceManager.sigmaCPUClockDrift = 0.0
SN.node[**].ResourceManager.CPUmodel = "../../../models/CPU/CPU_ARM-Cortex-A9.dat"    
SN.node[**].ResourceManager.SENmodel = "../../../models/SEN/SEN_B3.dat"
SN.node[**].ResourceManager.COMmodel = "../../../models/COM/CC2420.txt"
SN.node[**].ResourceManager.CPUfreq = 1.5e9
SN.node[**].ResourceManager.SENfreq = 24e6
SN.node[**].ResourceManager.initialEnergy = 1000
SN.node[**].ResourceManager.optimizationFactor = 4

# ==============================================
# Node: Communication: Radio (Physical Layer)
# ==============================================
### Ideal radio parameters... 
SN.node[**].Communication.Radio.RadioParametersFile = "../../../models/COM/CC2420.txt"
SN.node[**].Communication.Radio.mode = "IDEAL"
SN.node[**].Communication.Radio.collisionModel = 0  # 0:None  1:Simplistic  2:Additive
SN.node[**].Communication.Radio.maxPhyFrameSize = 0 # no limits
SN.node[**].Communication.Radio.phyFrameOverhead = 0 
 
# ==============================================
# Node: Communication: MAC (Datalink Layer)
# ==============================================
SN.node[**].Communication.MAC.macPacketOverhead = 0 # MAC without overhaead (ideal)

#SN.node[**].Communication.MACProtocolName = "TunableMAC"
#SN.node[**].Communication.MAC.randomTxOffset = 0
#SN.node[**].Communication.MAC.numTx = 1

#### S-MAC configuration of T-MAC
#SN.node[**].Communication.MACProtocolName = "TMAC"
#SN.node[**].Communication.MAC.listenTimeout = 61
#SN.node[**].Communication.MAC.disableTAextension = true
#SN.node[**].Communication.MAC.conservativeTA = false
#SN.node[**].Communication.MAC.collisionResolution = 0

### My configuration for T-MAC
SN.node[**].Communication.MACProtocolName = "TMAC"
SN.node[**].Communication.MAC.maxTxRetries = 10
SN.node[**].Communication.MAC.allowSinkSync = false

# ==============================================
# Node: Communication: Routing (Network Layer)
# ==============================================
### Routing without overhaead (ideal)
SN.node[**].Communication.Routing.netDataFrameOverhead = 0
SN.node[**].Communication.**.collectTraceInfo = true

# ==============================================
# CONFIGURATION FOR sequence PETS09_S2L1
# ==============================================
[Config PETS09_S2L1]
SN.numNodes = 7	# number of camera nodes (i.e. available views)

#world coordinates (in meters)  from http://www.milanton.de/data/
SN.xmax = 70000			#maximum X-coordinate of the world (milimeters)
SN.xmin = -20000	#minimum X-coordinate of the world (milimeters)
SN.ymax = 115000			#maximum Y-coordinate of the world (milimeters)
SN.ymin = -25000		#minimum Y-coordinate of the world (milimeters)
 
SN.wiseTerrain.scale_world = 0.005	#factor to increase (>1) or decrease (<1) the GUI size (world image)
SN.wiseTerrain.GPmap_path =  "../../../videos/Crowd_PETS09/S2/L1/PETS2009_map.png" #path for ground-plane image

#calibration information
#SN.node[**].SensorManager.calib_world2map_filename = "" #we do not have calibration for world -> ground-plane image
SN.node[**].SensorManager.calib_type = "tsai"		#calibration type tsai (http://homepages.inf.ed.ac.uk/rbf/CVonline/LOCAL_COPIES/DIAS1/)
SN.node[0].SensorManager.calib_filename = "../../../videos/Crowd_PETS09/S2/L1/view001_calib.xml" #calibration file for camera 001
SN.node[1].SensorManager.calib_filename = "../../../videos/Crowd_PETS09/S2/L1/view003_calib.xml" #calibration file for camera 004
SN.node[2].SensorManager.calib_filename = "../../../videos/Crowd_PETS09/S2/L1/view004_calib.xml" #calibration file for camera 004
SN.node[3].SensorManager.calib_filename = "../../../videos/Crowd_PETS09/S2/L1/view005_calib.xml" #calibration file for camera 005
SN.node[4].SensorManager.calib_filename = "../../../videos/Crowd_PETS09/S2/L1/view006_calib.xml" #calibration file for camera 006
SN.node[5].SensorManager.calib_filename = "../../../videos/Crowd_PETS09/S2/L1/view007_calib.xml" #calibration file for camera 007
SN.node[6].SensorManager.calib_filename = "../../../videos/Crowd_PETS09/S2/L1/view008_calib.xml" #calibration file for camera 008

#video inputs 
SN.numPhysicalProcesses = 7 				#number of camera sensors (i.e. video files captured by each node)
SN.physicalProcess[0].file_name = "../../../videos/Crowd_PETS09/S2/L1/view001_7fps_mpeg4.avi"
SN.physicalProcess[1].file_name = "../../../videos/Crowd_PETS09/S2/L1/view003_7fps_mpeg4.avi"
SN.physicalProcess[2].file_name = "../../../videos/Crowd_PETS09/S2/L1/view004_7fps_mpeg4.avi"
SN.physicalProcess[3].file_name = "../../../videos/Crowd_PETS09/S2/L1/view005_7fps_mpeg4.avi"
SN.physicalProcess[4].file_name = "../../../videos/Crowd_PETS09/S2/L1/view006_7fps_mpeg4.avi"
SN.physicalProcess[5].file_name = "../../../videos/Crowd_PETS09/S2/L1/view007_7fps_mpeg4.avi"
SN.physicalProcess[6].file_name = "../../../videos/Crowd_PETS09/S2/L1/view008_7fps_mpeg4.avi"

# ==============================================
# CONFIGURATION FOR sequence ICGLab6_chap
# ==============================================
[Config ICGLab6_chap]
SN.numNodes = 4		# number of camera nodes (i.e. available views)

#world coordinates (in meters) 
SN.xmax = 5000		# maximum X-coordinate of the world (milimeters)
SN.xmin = -1000		# minimum X-coordinate of the world (milimeters)
SN.ymax = 2000		# maximum Y-coordinate of the world (milimeters)
SN.ymin = -2000		# minimum Y-coordinate of the world (milimeters)
 
SN.wiseTerrain.scale_world = 0.05	#factor to increase (>1) or decrease (<1) the GUI size (world image)
SN.wiseTerrain.GPmap_path = "../../../videos/ICGLab6/calibration/groundplane_lab.png" #path for ground-plane image

#calibration information
SN.node[**].SensorManager.calib_world2map_filename = "../../../videos/ICGLab6/chap/map_calib.xml" #calibration for world -> ground-plane image
SN.node[**].SensorManager.calib_type = "homography" #supported calibration types: 'tsai' & 'homography' 
SN.node[0].SensorManager.calib_filename = "../../../videos/ICGLab6/chap/cam131_calib.xml" #calibration file for camera 131
SN.node[1].SensorManager.calib_filename = "../../../videos/ICGLab6/chap/cam132_calib.xml" #calibration file for camera 132
SN.node[2].SensorManager.calib_filename = "../../../videos/ICGLab6/chap/cam133_calib.xml" #calibration file for camera 133
SN.node[3].SensorManager.calib_filename = "../../../videos/ICGLab6/chap/cam134_calib.xml" #calibration file for camera 134

#video inputs 
SN.numPhysicalProcesses = 4 				#number of camera sensors (i.e. video files captured by each node)
SN.physicalProcess[0].file_name = "../../../videos/ICGLab6/chap/cam131.avi" #filename for video data captured by camera 131
SN.physicalProcess[1].file_name = "../../../videos/ICGLab6/chap/cam132.avi" #filename for video data captured by camera 132
SN.physicalProcess[2].file_name = "../../../videos/ICGLab6/chap/cam133.avi" #filename for video data captured by camera 133
SN.physicalProcess[3].file_name = "../../../videos/ICGLab6/chap/cam134.avi" #filename for video data captured by camera 134