### ------------------------------------------------------------------------ ###
### WiseMultiCameraPeriodicApp_DPF - demo3
### 
### Description: multi-camera tracking for a single moving target using DPF algorithm.
###				 single target tracking with 20 cameras with communication delay
### 
### Available simulations extending the configuration in [General]:none
###
###	References:	
###		- DPF algorithm: 
###			C. Nastasi, A. Cavallaro "Distributed target tracking under realistic network conditions"
###			Proc. of Sensor Signal Processing for Defence (SSPD), London, UK, 28-29 September, 2011
###			http://ieeexplore.ieee.org/document/6253415/ 
###		
### Please cite the following reference when publishing results obtained with WiseMnet:
###   J. SanMiguel & A. Cavallaro,
###   "Networked Computer Vision: the importance of a holistic simulator",
###   IEEE Computer, 50(7):35-43, Jul 2017, http://ieeexplore.ieee.org/document/7971873/		
###
### Date: 2011-09-01 (updated 2017-06-01)
### Original Author: Christian Nastasi (nastasichr@gmail.com)
### Author: juancarlos.sanmiguel@uam.es (Universidad Autonoma de Madrid)
### 
### ------------------------------------------------------------------------ ###

[General]
include ../WiseCastalia.ini  # ALWAYS include WiseCastalia.ini

sim-time-limit =  3600s
# ==============================================
# Sensor Network setup
# ==============================================
SN.field_x = 160                   # meters
SN.field_y = 120                   # meters
SN.numNodes = 20                         
SN.numPhysicalProcesses = 1              
#SN.dummy_communication = true    # uncomment for dummy communication

# ==============================================
# Physical Processes (environment's events) 
# ==============================================
SN.wiseTerrain.gui = "opencv" 
SN.wiseTerrain.gui_wait_start = true 
SN.physicalProcessName = "WiseMovingTarget"
# --- 
SN.physicalProcess[0].x_init = 80.00
SN.physicalProcess[0].y_init = 60.00
SN.physicalProcess[0].bb_width = 10.00
SN.physicalProcess[0].bb_height = 10.00
SN.physicalProcess[0].update_time = 20.00
SN.physicalProcess[0].move_max_y = 120
SN.physicalProcess[0].move_max_x = 160
SN.physicalProcess[0].move_type = "lin_noise"
#SN.physicalProcess[0].move_type = "lincirc_noise"
#SN.physicalProcess[0].move_type = "random_walk8"
SN.physicalProcess[0].log_enabled = false
SN.physicalProcess[0].move_later = 60
SN.physicalProcess[0].move_min_y = 0.121535171574
SN.physicalProcess[0].move_min_x = 0

# ==============================================
# Nodes  
# ==============================================
SN.node[0].xCoor = 135.11
SN.node[0].yCoor = 90.95
SN.node[0].zCoor = 0.00
SN.node[0].phi = 0.00
SN.node[0].theta = 0.00
SN.node[1].xCoor = 67.29
SN.node[1].yCoor = 31.07
SN.node[1].zCoor = 0.00
SN.node[1].phi = 0.00
SN.node[1].theta = 0.00
SN.node[2].xCoor = 81.80
SN.node[2].yCoor = 48.59
SN.node[2].zCoor = 0.00
SN.node[2].phi = 0.00
SN.node[2].theta = 0.00
SN.node[3].xCoor = 125.41
SN.node[3].yCoor = 36.40
SN.node[3].zCoor = 0.00
SN.node[3].phi = 0.00
SN.node[3].theta = 0.00
SN.node[4].xCoor = 76.26
SN.node[4].yCoor = 70.01
SN.node[4].zCoor = 0.00
SN.node[4].phi = 0.00
SN.node[4].theta = 0.00
SN.node[5].xCoor = 145.30
SN.node[5].yCoor = 60.56
SN.node[5].zCoor = 0.00
SN.node[5].phi = 0.00
SN.node[5].theta = 0.00
SN.node[6].xCoor = 45.09
SN.node[6].yCoor = 90.70
SN.node[6].zCoor = 0.00
SN.node[6].phi = 0.00
SN.node[6].theta = 0.00
SN.node[7].xCoor = 98.94
SN.node[7].yCoor = 30.06
SN.node[7].zCoor = 0.00
SN.node[7].phi = 0.00
SN.node[7].theta = 0.00
SN.node[8].xCoor = 145.56
SN.node[8].yCoor = 117.93
SN.node[8].zCoor = 0.00
SN.node[8].phi = 0.00
SN.node[8].theta = 0.00
SN.node[9].xCoor = 129.63
SN.node[9].yCoor = 108.26
SN.node[9].zCoor = 0.00
SN.node[9].phi = 0.00
SN.node[9].theta = 0.00
SN.node[10].xCoor = 49.62
SN.node[10].yCoor = 87.58
SN.node[10].zCoor = 0.00
SN.node[10].phi = 0.00
SN.node[10].theta = 0.00
SN.node[11].xCoor = 143.81
SN.node[11].yCoor = 82.08
SN.node[11].zCoor = 0.00
SN.node[11].phi = 0.00
SN.node[11].theta = 0.00
SN.node[12].xCoor = 75.54
SN.node[12].yCoor = 12.08
SN.node[12].zCoor = 0.00
SN.node[12].phi = 0.00
SN.node[12].theta = 0.00
SN.node[13].xCoor = 69.47
SN.node[13].yCoor = 73.31
SN.node[13].zCoor = 0.00
SN.node[13].phi = 0.00
SN.node[13].theta = 0.00
SN.node[14].xCoor = 146.08
SN.node[14].yCoor = 115.99
SN.node[14].zCoor = 0.00
SN.node[14].phi = 0.00
SN.node[14].theta = 0.00
SN.node[15].xCoor = 76.32
SN.node[15].yCoor = 103.84
SN.node[15].zCoor = 0.00
SN.node[15].phi = 0.00
SN.node[15].theta = 0.00
SN.node[16].xCoor = 41.68
SN.node[16].yCoor = 96.60
SN.node[16].zCoor = 0.00
SN.node[16].phi = 0.00
SN.node[16].theta = 0.00
SN.node[17].xCoor = 87.79
SN.node[17].yCoor = 1.69
SN.node[17].zCoor = 0.00
SN.node[17].phi = 0.00
SN.node[17].theta = 0.00
SN.node[18].xCoor = 115.15
SN.node[18].yCoor = 47.86
SN.node[18].zCoor = 0.00
SN.node[18].phi = 0.00
SN.node[18].theta = 0.00
SN.node[19].xCoor = 131.98
SN.node[19].yCoor = 80.18
SN.node[19].zCoor = 0.00
SN.node[19].phi = 0.00
SN.node[19].theta = 0.00
SN.node[20].xCoor = 0.18
SN.node[20].yCoor = 59.23
SN.node[20].zCoor = 0.00
SN.node[20].phi = 0.00
SN.node[20].theta = 0.00
SN.node[21].xCoor = 138.82
SN.node[21].yCoor = 29.27
SN.node[21].zCoor = 0.00
SN.node[21].phi = 0.00
SN.node[21].theta = 0.00
SN.node[22].xCoor = 52.03
SN.node[22].yCoor = 104.46
SN.node[22].zCoor = 0.00
SN.node[22].phi = 0.00
SN.node[22].theta = 0.00
SN.node[23].xCoor = 30.57
SN.node[23].yCoor = 68.10
SN.node[23].zCoor = 0.00
SN.node[23].phi = 0.00
SN.node[23].theta = 0.00
SN.node[24].xCoor = 38.18
SN.node[24].yCoor = 116.10
SN.node[24].zCoor = 0.00
SN.node[24].phi = 0.00
SN.node[24].theta = 0.00
SN.node[25].xCoor = 128.51
SN.node[25].yCoor = 53.76
SN.node[25].zCoor = 0.00
SN.node[25].phi = 0.00
SN.node[25].theta = 0.00
SN.node[26].xCoor = 12.87
SN.node[26].yCoor = 38.41
SN.node[26].zCoor = 0.00
SN.node[26].phi = 0.00
SN.node[26].theta = 0.00
SN.node[27].xCoor = 81.27
SN.node[27].yCoor = 111.94
SN.node[27].zCoor = 0.00
SN.node[27].phi = 0.00
SN.node[27].theta = 0.00
SN.node[28].xCoor = 17.45
SN.node[28].yCoor = 66.15
SN.node[28].zCoor = 0.00
SN.node[28].phi = 0.00
SN.node[28].theta = 0.00
SN.node[29].xCoor = 113.05
SN.node[29].yCoor = 65.69
SN.node[29].zCoor = 0.00
SN.node[29].phi = 0.00
SN.node[29].theta = 0.00
SN.node[30].xCoor = 130.31
SN.node[30].yCoor = 64.83
SN.node[30].zCoor = 0.00
SN.node[30].phi = 0.00
SN.node[30].theta = 0.00
SN.node[31].xCoor = 154.21
SN.node[31].yCoor = 72.38
SN.node[31].zCoor = 0.00
SN.node[31].phi = 0.00
SN.node[31].theta = 0.00
SN.node[32].xCoor = 94.02
SN.node[32].yCoor = 53.40
SN.node[32].zCoor = 0.00
SN.node[32].phi = 0.00
SN.node[32].theta = 0.00
SN.node[33].xCoor = 95.41
SN.node[33].yCoor = 46.19
SN.node[33].zCoor = 0.00
SN.node[33].phi = 0.00
SN.node[33].theta = 0.00
SN.node[34].xCoor = 92.10
SN.node[34].yCoor = 34.84
SN.node[34].zCoor = 0.00
SN.node[34].phi = 0.00
SN.node[34].theta = 0.00
SN.node[35].xCoor = 30.30
SN.node[35].yCoor = 22.41
SN.node[35].zCoor = 0.00
SN.node[35].phi = 0.00
SN.node[35].theta = 0.00
SN.node[36].xCoor = 98.04
SN.node[36].yCoor = 78.80
SN.node[36].zCoor = 0.00
SN.node[36].phi = 0.00
SN.node[36].theta = 0.00
SN.node[37].xCoor = 76.24
SN.node[37].yCoor = 10.78
SN.node[37].zCoor = 0.00
SN.node[37].phi = 0.00
SN.node[37].theta = 0.00
SN.node[38].xCoor = 121.22
SN.node[38].yCoor = 105.21
SN.node[38].zCoor = 0.00
SN.node[38].phi = 0.00
SN.node[38].theta = 0.00
SN.node[39].xCoor = 147.74
SN.node[39].yCoor = 101.10
SN.node[39].zCoor = 0.00
SN.node[39].phi = 0.00
SN.node[39].theta = 0.00
SN.node[40].xCoor = 143.71
SN.node[40].yCoor = 110.77
SN.node[40].zCoor = 0.00
SN.node[40].phi = 0.00
SN.node[40].theta = 0.00
SN.node[41].xCoor = 86.50
SN.node[41].yCoor = 46.96
SN.node[41].zCoor = 0.00
SN.node[41].phi = 0.00
SN.node[41].theta = 0.00
SN.node[42].xCoor = 112.85
SN.node[42].yCoor = 33.08
SN.node[42].zCoor = 0.00
SN.node[42].phi = 0.00
SN.node[42].theta = 0.00
SN.node[43].xCoor = 129.86
SN.node[43].yCoor = 101.94
SN.node[43].zCoor = 0.00
SN.node[43].phi = 0.00
SN.node[43].theta = 0.00
SN.node[44].xCoor = 143.21
SN.node[44].yCoor = 70.78
SN.node[44].zCoor = 0.00
SN.node[44].phi = 0.00
SN.node[44].theta = 0.00
SN.node[45].xCoor = 151.96
SN.node[45].yCoor = 69.56
SN.node[45].zCoor = 0.00
SN.node[45].phi = 0.00
SN.node[45].theta = 0.00
SN.node[46].xCoor = 72.09
SN.node[46].yCoor = 79.23
SN.node[46].zCoor = 0.00
SN.node[46].phi = 0.00
SN.node[46].theta = 0.00
SN.node[47].xCoor = 159.40
SN.node[47].yCoor = 110.03
SN.node[47].zCoor = 0.00
SN.node[47].phi = 0.00
SN.node[47].theta = 0.00
SN.node[48].xCoor = 126.93
SN.node[48].yCoor = 9.88
SN.node[48].zCoor = 0.00
SN.node[48].phi = 0.00
SN.node[48].theta = 0.00
SN.node[49].xCoor = 98.05
SN.node[49].yCoor = 58.37
SN.node[49].zCoor = 0.00
SN.node[49].phi = 0.00
SN.node[49].theta = 0.00
SN.node[50].xCoor = 100.82
SN.node[50].yCoor = 101.41
SN.node[50].zCoor = 0.00
SN.node[50].phi = 0.00
SN.node[50].theta = 0.00
SN.node[51].xCoor = 38.89
SN.node[51].yCoor = 87.78
SN.node[51].zCoor = 0.00
SN.node[51].phi = 0.00
SN.node[51].theta = 0.00
SN.node[52].xCoor = 18.74
SN.node[52].yCoor = 26.46
SN.node[52].zCoor = 0.00
SN.node[52].phi = 0.00
SN.node[52].theta = 0.00
SN.node[53].xCoor = 127.13
SN.node[53].yCoor = 39.90
SN.node[53].zCoor = 0.00
SN.node[53].phi = 0.00
SN.node[53].theta = 0.00
SN.node[54].xCoor = 130.55
SN.node[54].yCoor = 12.07
SN.node[54].zCoor = 0.00
SN.node[54].phi = 0.00
SN.node[54].theta = 0.00
SN.node[55].xCoor = 23.42
SN.node[55].yCoor = 83.72
SN.node[55].zCoor = 0.00
SN.node[55].phi = 0.00
SN.node[55].theta = 0.00
SN.node[56].xCoor = 7.24
SN.node[56].yCoor = 68.86
SN.node[56].zCoor = 0.00
SN.node[56].phi = 0.00
SN.node[56].theta = 0.00
SN.node[57].xCoor = 145.60
SN.node[57].yCoor = 64.10
SN.node[57].zCoor = 0.00
SN.node[57].phi = 0.00
SN.node[57].theta = 0.00
SN.node[58].xCoor = 108.89
SN.node[58].yCoor = 3.20
SN.node[58].zCoor = 0.00
SN.node[58].phi = 0.00
SN.node[58].theta = 0.00
SN.node[59].xCoor = 101.60
SN.node[59].yCoor = 72.76
SN.node[59].zCoor = 0.00
SN.node[59].phi = 0.00
SN.node[59].theta = 0.00
SN.node[60].xCoor = 92.15
SN.node[60].yCoor = 46.95
SN.node[60].zCoor = 0.00
SN.node[60].phi = 0.00
SN.node[60].theta = 0.00
SN.node[61].xCoor = 59.22
SN.node[61].yCoor = 117.66
SN.node[61].zCoor = 0.00
SN.node[61].phi = 0.00
SN.node[61].theta = 0.00
SN.node[62].xCoor = 5.82
SN.node[62].yCoor = 2.60
SN.node[62].zCoor = 0.00
SN.node[62].phi = 0.00
SN.node[62].theta = 0.00
SN.node[63].xCoor = 153.77
SN.node[63].yCoor = 22.20
SN.node[63].zCoor = 0.00
SN.node[63].phi = 0.00
SN.node[63].theta = 0.00
SN.node[64].xCoor = 19.82
SN.node[64].yCoor = 25.27
SN.node[64].zCoor = 0.00
SN.node[64].phi = 0.00
SN.node[64].theta = 0.00
SN.node[65].xCoor = 128.12
SN.node[65].yCoor = 112.44
SN.node[65].zCoor = 0.00
SN.node[65].phi = 0.00
SN.node[65].theta = 0.00
SN.node[66].xCoor = 3.65
SN.node[66].yCoor = 51.07
SN.node[66].zCoor = 0.00
SN.node[66].phi = 0.00
SN.node[66].theta = 0.00
SN.node[67].xCoor = 16.24
SN.node[67].yCoor = 31.19
SN.node[67].zCoor = 0.00
SN.node[67].phi = 0.00
SN.node[67].theta = 0.00
SN.node[68].xCoor = 35.33
SN.node[68].yCoor = 77.63
SN.node[68].zCoor = 0.00
SN.node[68].phi = 0.00
SN.node[68].theta = 0.00
SN.node[69].xCoor = 56.05
SN.node[69].yCoor = 21.64
SN.node[69].zCoor = 0.00
SN.node[69].phi = 0.00
SN.node[69].theta = 0.00
SN.node[70].xCoor = 80.58
SN.node[70].yCoor = 4.73
SN.node[70].zCoor = 0.00
SN.node[70].phi = 0.00
SN.node[70].theta = 0.00
SN.node[71].xCoor = 16.15
SN.node[71].yCoor = 118.59
SN.node[71].zCoor = 0.00
SN.node[71].phi = 0.00
SN.node[71].theta = 0.00
SN.node[72].xCoor = 31.90
SN.node[72].yCoor = 43.03
SN.node[72].zCoor = 0.00
SN.node[72].phi = 0.00
SN.node[72].theta = 0.00
SN.node[73].xCoor = 117.06
SN.node[73].yCoor = 100.60
SN.node[73].zCoor = 0.00
SN.node[73].phi = 0.00
SN.node[73].theta = 0.00
SN.node[74].xCoor = 146.96
SN.node[74].yCoor = 20.33
SN.node[74].zCoor = 0.00
SN.node[74].phi = 0.00
SN.node[74].theta = 0.00
SN.node[75].xCoor = 107.62
SN.node[75].yCoor = 115.99
SN.node[75].zCoor = 0.00
SN.node[75].phi = 0.00
SN.node[75].theta = 0.00
SN.node[76].xCoor = 9.29
SN.node[76].yCoor = 81.14
SN.node[76].zCoor = 0.00
SN.node[76].phi = 0.00
SN.node[76].theta = 0.00
SN.node[77].xCoor = 135.27
SN.node[77].yCoor = 41.08
SN.node[77].zCoor = 0.00
SN.node[77].phi = 0.00
SN.node[77].theta = 0.00
SN.node[78].xCoor = 40.11
SN.node[78].yCoor = 71.61
SN.node[78].zCoor = 0.00
SN.node[78].phi = 0.00
SN.node[78].theta = 0.00
SN.node[79].xCoor = 70.77
SN.node[79].yCoor = 20.98
SN.node[79].zCoor = 0.00
SN.node[79].phi = 0.00
SN.node[79].theta = 0.00
SN.node[80].xCoor = 75.46
SN.node[80].yCoor = 49.19
SN.node[80].zCoor = 0.00
SN.node[80].phi = 0.00
SN.node[80].theta = 0.00
SN.node[81].xCoor = 91.06
SN.node[81].yCoor = 61.03
SN.node[81].zCoor = 0.00
SN.node[81].phi = 0.00
SN.node[81].theta = 0.00
SN.node[82].xCoor = 49.83
SN.node[82].yCoor = 42.86
SN.node[82].zCoor = 0.00
SN.node[82].phi = 0.00
SN.node[82].theta = 0.00
SN.node[83].xCoor = 134.03
SN.node[83].yCoor = 30.11
SN.node[83].zCoor = 0.00
SN.node[83].phi = 0.00
SN.node[83].theta = 0.00
SN.node[84].xCoor = 89.70
SN.node[84].yCoor = 1.49
SN.node[84].zCoor = 0.00
SN.node[84].phi = 0.00
SN.node[84].theta = 0.00
SN.node[85].xCoor = 118.65
SN.node[85].yCoor = 40.31
SN.node[85].zCoor = 0.00
SN.node[85].phi = 0.00
SN.node[85].theta = 0.00
SN.node[86].xCoor = 7.31
SN.node[86].yCoor = 33.71
SN.node[86].zCoor = 0.00
SN.node[86].phi = 0.00
SN.node[86].theta = 0.00
SN.node[87].xCoor = 38.42
SN.node[87].yCoor = 114.38
SN.node[87].zCoor = 0.00
SN.node[87].phi = 0.00
SN.node[87].theta = 0.00
SN.node[88].xCoor = 56.36
SN.node[88].yCoor = 34.55
SN.node[88].zCoor = 0.00
SN.node[88].phi = 0.00
SN.node[88].theta = 0.00
SN.node[89].xCoor = 57.47
SN.node[89].yCoor = 113.63
SN.node[89].zCoor = 0.00
SN.node[89].phi = 0.00
SN.node[89].theta = 0.00
SN.node[90].xCoor = 101.40
SN.node[90].yCoor = 74.53
SN.node[90].zCoor = 0.00
SN.node[90].phi = 0.00
SN.node[90].theta = 0.00
SN.node[91].xCoor = 114.50
SN.node[91].yCoor = 46.56
SN.node[91].zCoor = 0.00
SN.node[91].phi = 0.00
SN.node[91].theta = 0.00
SN.node[92].xCoor = 66.31
SN.node[92].yCoor = 78.10
SN.node[92].zCoor = 0.00
SN.node[92].phi = 0.00
SN.node[92].theta = 0.00
SN.node[93].xCoor = 0.24
SN.node[93].yCoor = 23.08
SN.node[93].zCoor = 0.00
SN.node[93].phi = 0.00
SN.node[93].theta = 0.00
SN.node[94].xCoor = 53.50
SN.node[94].yCoor = 28.73
SN.node[94].zCoor = 0.00
SN.node[94].phi = 0.00
SN.node[94].theta = 0.00
SN.node[95].xCoor = 101.98
SN.node[95].yCoor = 45.44
SN.node[95].zCoor = 0.00
SN.node[95].phi = 0.00
SN.node[95].theta = 0.00
SN.node[96].xCoor = 140.07
SN.node[96].yCoor = 68.18
SN.node[96].zCoor = 0.00
SN.node[96].phi = 0.00
SN.node[96].theta = 0.00
SN.node[97].xCoor = 66.31
SN.node[97].yCoor = 48.27
SN.node[97].zCoor = 0.00
SN.node[97].phi = 0.00
SN.node[97].theta = 0.00
SN.node[98].xCoor = 112.29
SN.node[98].yCoor = 50.19
SN.node[98].zCoor = 0.00
SN.node[98].phi = 0.00
SN.node[98].theta = 0.00
SN.node[99].xCoor = 105.95
SN.node[99].yCoor = 5.61
SN.node[99].zCoor = 0.00
SN.node[99].phi = 0.00
SN.node[99].theta = 0.00
SN.node[100].xCoor = 71.26
SN.node[100].yCoor = 31.11
SN.node[100].zCoor = 0.00
SN.node[100].phi = 0.00
SN.node[100].theta = 0.00
SN.node[101].xCoor = 25.23
SN.node[101].yCoor = 63.31
SN.node[101].zCoor = 0.00
SN.node[101].phi = 0.00
SN.node[101].theta = 0.00
SN.node[102].xCoor = 77.96
SN.node[102].yCoor = 67.37
SN.node[102].zCoor = 0.00
SN.node[102].phi = 0.00
SN.node[102].theta = 0.00
SN.node[103].xCoor = 120.88
SN.node[103].yCoor = 106.07
SN.node[103].zCoor = 0.00
SN.node[103].phi = 0.00
SN.node[103].theta = 0.00
SN.node[104].xCoor = 79.13
SN.node[104].yCoor = 37.45
SN.node[104].zCoor = 0.00
SN.node[104].phi = 0.00
SN.node[104].theta = 0.00
SN.node[105].xCoor = 74.70
SN.node[105].yCoor = 97.09
SN.node[105].zCoor = 0.00
SN.node[105].phi = 0.00
SN.node[105].theta = 0.00
SN.node[106].xCoor = 140.00
SN.node[106].yCoor = 97.49
SN.node[106].zCoor = 0.00
SN.node[106].phi = 0.00
SN.node[106].theta = 0.00
SN.node[107].xCoor = 30.08
SN.node[107].yCoor = 119.93
SN.node[107].zCoor = 0.00
SN.node[107].phi = 0.00
SN.node[107].theta = 0.00
SN.node[108].xCoor = 101.29
SN.node[108].yCoor = 10.02
SN.node[108].zCoor = 0.00
SN.node[108].phi = 0.00
SN.node[108].theta = 0.00
SN.node[109].xCoor = 116.09
SN.node[109].yCoor = 118.42
SN.node[109].zCoor = 0.00
SN.node[109].phi = 0.00
SN.node[109].theta = 0.00
SN.node[110].xCoor = 64.29
SN.node[110].yCoor = 81.42
SN.node[110].zCoor = 0.00
SN.node[110].phi = 0.00
SN.node[110].theta = 0.00
SN.node[111].xCoor = 50.59
SN.node[111].yCoor = 25.62
SN.node[111].zCoor = 0.00
SN.node[111].phi = 0.00
SN.node[111].theta = 0.00
SN.node[112].xCoor = 114.77
SN.node[112].yCoor = 0.28
SN.node[112].zCoor = 0.00
SN.node[112].phi = 0.00
SN.node[112].theta = 0.00
SN.node[113].xCoor = 131.64
SN.node[113].yCoor = 63.40
SN.node[113].zCoor = 0.00
SN.node[113].phi = 0.00
SN.node[113].theta = 0.00
SN.node[114].xCoor = 15.65
SN.node[114].yCoor = 14.27
SN.node[114].zCoor = 0.00
SN.node[114].phi = 0.00
SN.node[114].theta = 0.00
SN.node[115].xCoor = 103.88
SN.node[115].yCoor = 104.84
SN.node[115].zCoor = 0.00
SN.node[115].phi = 0.00
SN.node[115].theta = 0.00
SN.node[116].xCoor = 44.80
SN.node[116].yCoor = 117.42
SN.node[116].zCoor = 0.00
SN.node[116].phi = 0.00
SN.node[116].theta = 0.00
SN.node[117].xCoor = 16.03
SN.node[117].yCoor = 102.47
SN.node[117].zCoor = 0.00
SN.node[117].phi = 0.00
SN.node[117].theta = 0.00
SN.node[118].xCoor = 63.47
SN.node[118].yCoor = 9.76
SN.node[118].zCoor = 0.00
SN.node[118].phi = 0.00
SN.node[118].theta = 0.00
SN.node[119].xCoor = 43.95
SN.node[119].yCoor = 54.36
SN.node[119].zCoor = 0.00
SN.node[119].phi = 0.00
SN.node[119].theta = 0.00
SN.node[120].xCoor = 126.77
SN.node[120].yCoor = 103.36
SN.node[120].zCoor = 0.00
SN.node[120].phi = 0.00
SN.node[120].theta = 0.00
SN.node[121].xCoor = 21.35
SN.node[121].yCoor = 62.50
SN.node[121].zCoor = 0.00
SN.node[121].phi = 0.00
SN.node[121].theta = 0.00
SN.node[122].xCoor = 104.13
SN.node[122].yCoor = 41.65
SN.node[122].zCoor = 0.00
SN.node[122].phi = 0.00
SN.node[122].theta = 0.00
SN.node[123].xCoor = 139.50
SN.node[123].yCoor = 33.41
SN.node[123].zCoor = 0.00
SN.node[123].phi = 0.00
SN.node[123].theta = 0.00
SN.node[124].xCoor = 2.97
SN.node[124].yCoor = 4.88
SN.node[124].zCoor = 0.00
SN.node[124].phi = 0.00
SN.node[124].theta = 0.00
SN.node[125].xCoor = 108.96
SN.node[125].yCoor = 67.00
SN.node[125].zCoor = 0.00
SN.node[125].phi = 0.00
SN.node[125].theta = 0.00
SN.node[126].xCoor = 151.44
SN.node[126].yCoor = 112.61
SN.node[126].zCoor = 0.00
SN.node[126].phi = 0.00
SN.node[126].theta = 0.00
SN.node[127].xCoor = 145.58
SN.node[127].yCoor = 5.04
SN.node[127].zCoor = 0.00
SN.node[127].phi = 0.00
SN.node[127].theta = 0.00
SN.node[128].xCoor = 119.86
SN.node[128].yCoor = 84.16
SN.node[128].zCoor = 0.00
SN.node[128].phi = 0.00
SN.node[128].theta = 0.00
SN.node[129].xCoor = 104.86
SN.node[129].yCoor = 85.48
SN.node[129].zCoor = 0.00
SN.node[129].phi = 0.00
SN.node[129].theta = 0.00
SN.node[130].xCoor = 144.43
SN.node[130].yCoor = 76.82
SN.node[130].zCoor = 0.00
SN.node[130].phi = 0.00
SN.node[130].theta = 0.00
SN.node[131].xCoor = 59.59
SN.node[131].yCoor = 64.55
SN.node[131].zCoor = 0.00
SN.node[131].phi = 0.00
SN.node[131].theta = 0.00
SN.node[132].xCoor = 33.26
SN.node[132].yCoor = 70.46
SN.node[132].zCoor = 0.00
SN.node[132].phi = 0.00
SN.node[132].theta = 0.00
SN.node[133].xCoor = 1.42
SN.node[133].yCoor = 18.12
SN.node[133].zCoor = 0.00
SN.node[133].phi = 0.00
SN.node[133].theta = 0.00
SN.node[134].xCoor = 53.35
SN.node[134].yCoor = 94.75
SN.node[134].zCoor = 0.00
SN.node[134].phi = 0.00
SN.node[134].theta = 0.00
SN.node[135].xCoor = 114.96
SN.node[135].yCoor = 40.59
SN.node[135].zCoor = 0.00
SN.node[135].phi = 0.00
SN.node[135].theta = 0.00
SN.node[136].xCoor = 99.29
SN.node[136].yCoor = 4.94
SN.node[136].zCoor = 0.00
SN.node[136].phi = 0.00
SN.node[136].theta = 0.00
SN.node[137].xCoor = 26.22
SN.node[137].yCoor = 117.83
SN.node[137].zCoor = 0.00
SN.node[137].phi = 0.00
SN.node[137].theta = 0.00
SN.node[138].xCoor = 46.32
SN.node[138].yCoor = 47.38
SN.node[138].zCoor = 0.00
SN.node[138].phi = 0.00
SN.node[138].theta = 0.00
SN.node[139].xCoor = 87.76
SN.node[139].yCoor = 35.21
SN.node[139].zCoor = 0.00
SN.node[139].phi = 0.00
SN.node[139].theta = 0.00
SN.node[140].xCoor = 76.49
SN.node[140].yCoor = 28.76
SN.node[140].zCoor = 0.00
SN.node[140].phi = 0.00
SN.node[140].theta = 0.00
SN.node[141].xCoor = 7.72
SN.node[141].yCoor = 21.55
SN.node[141].zCoor = 0.00
SN.node[141].phi = 0.00
SN.node[141].theta = 0.00
SN.node[142].xCoor = 83.69
SN.node[142].yCoor = 8.50
SN.node[142].zCoor = 0.00
SN.node[142].phi = 0.00
SN.node[142].theta = 0.00
SN.node[143].xCoor = 64.51
SN.node[143].yCoor = 39.42
SN.node[143].zCoor = 0.00
SN.node[143].phi = 0.00
SN.node[143].theta = 0.00
SN.node[144].xCoor = 66.36
SN.node[144].yCoor = 11.93
SN.node[144].zCoor = 0.00
SN.node[144].phi = 0.00
SN.node[144].theta = 0.00
SN.node[145].xCoor = 145.39
SN.node[145].yCoor = 56.88
SN.node[145].zCoor = 0.00
SN.node[145].phi = 0.00
SN.node[145].theta = 0.00
SN.node[146].xCoor = 134.54
SN.node[146].yCoor = 117.15
SN.node[146].zCoor = 0.00
SN.node[146].phi = 0.00
SN.node[146].theta = 0.00
SN.node[147].xCoor = 54.98
SN.node[147].yCoor = 57.49
SN.node[147].zCoor = 0.00
SN.node[147].phi = 0.00
SN.node[147].theta = 0.00
SN.node[148].xCoor = 111.94
SN.node[148].yCoor = 51.18
SN.node[148].zCoor = 0.00
SN.node[148].phi = 0.00
SN.node[148].theta = 0.00
SN.node[149].xCoor = 48.30
SN.node[149].yCoor = 88.17
SN.node[149].zCoor = 0.00
SN.node[149].phi = 0.00
SN.node[149].theta = 0.00
SN.node[150].xCoor = 143.10
SN.node[150].yCoor = 110.36
SN.node[150].zCoor = 0.00
SN.node[150].phi = 0.00
SN.node[150].theta = 0.00
SN.node[151].xCoor = 100.28
SN.node[151].yCoor = 45.07
SN.node[151].zCoor = 0.00
SN.node[151].phi = 0.00
SN.node[151].theta = 0.00
SN.node[152].xCoor = 155.93
SN.node[152].yCoor = 76.67
SN.node[152].zCoor = 0.00
SN.node[152].phi = 0.00
SN.node[152].theta = 0.00
SN.node[153].xCoor = 10.53
SN.node[153].yCoor = 10.16
SN.node[153].zCoor = 0.00
SN.node[153].phi = 0.00
SN.node[153].theta = 0.00
SN.node[154].xCoor = 119.98
SN.node[154].yCoor = 7.34
SN.node[154].zCoor = 0.00
SN.node[154].phi = 0.00
SN.node[154].theta = 0.00
SN.node[155].xCoor = 1.26
SN.node[155].yCoor = 47.26
SN.node[155].zCoor = 0.00
SN.node[155].phi = 0.00
SN.node[155].theta = 0.00
SN.node[156].xCoor = 83.04
SN.node[156].yCoor = 53.83
SN.node[156].zCoor = 0.00
SN.node[156].phi = 0.00
SN.node[156].theta = 0.00
SN.node[157].xCoor = 78.18
SN.node[157].yCoor = 70.19
SN.node[157].zCoor = 0.00
SN.node[157].phi = 0.00
SN.node[157].theta = 0.00
SN.node[158].xCoor = 108.69
SN.node[158].yCoor = 50.76
SN.node[158].zCoor = 0.00
SN.node[158].phi = 0.00
SN.node[158].theta = 0.00
SN.node[159].xCoor = 58.93
SN.node[159].yCoor = 118.62
SN.node[159].zCoor = 0.00
SN.node[159].phi = 0.00
SN.node[159].theta = 0.00
SN.node[160].xCoor = 41.75
SN.node[160].yCoor = 93.25
SN.node[160].zCoor = 0.00
SN.node[160].phi = 0.00
SN.node[160].theta = 0.00
SN.node[161].xCoor = 69.00
SN.node[161].yCoor = 43.02
SN.node[161].zCoor = 0.00
SN.node[161].phi = 0.00
SN.node[161].theta = 0.00
SN.node[162].xCoor = 10.22
SN.node[162].yCoor = 103.63
SN.node[162].zCoor = 0.00
SN.node[162].phi = 0.00
SN.node[162].theta = 0.00
SN.node[163].xCoor = 112.32
SN.node[163].yCoor = 108.36
SN.node[163].zCoor = 0.00
SN.node[163].phi = 0.00
SN.node[163].theta = 0.00
SN.node[164].xCoor = 72.26
SN.node[164].yCoor = 81.23
SN.node[164].zCoor = 0.00
SN.node[164].phi = 0.00
SN.node[164].theta = 0.00
SN.node[165].xCoor = 19.03
SN.node[165].yCoor = 47.75
SN.node[165].zCoor = 0.00
SN.node[165].phi = 0.00
SN.node[165].theta = 0.00
SN.node[166].xCoor = 33.16
SN.node[166].yCoor = 5.05
SN.node[166].zCoor = 0.00
SN.node[166].phi = 0.00
SN.node[166].theta = 0.00
SN.node[167].xCoor = 151.67
SN.node[167].yCoor = 25.91
SN.node[167].zCoor = 0.00
SN.node[167].phi = 0.00
SN.node[167].theta = 0.00
SN.node[168].xCoor = 23.42
SN.node[168].yCoor = 23.76
SN.node[168].zCoor = 0.00
SN.node[168].phi = 0.00
SN.node[168].theta = 0.00
SN.node[169].xCoor = 60.49
SN.node[169].yCoor = 65.57
SN.node[169].zCoor = 0.00
SN.node[169].phi = 0.00
SN.node[169].theta = 0.00
SN.node[170].xCoor = 24.21
SN.node[170].yCoor = 118.64
SN.node[170].zCoor = 0.00
SN.node[170].phi = 0.00
SN.node[170].theta = 0.00
SN.node[171].xCoor = 157.28
SN.node[171].yCoor = 17.81
SN.node[171].zCoor = 0.00
SN.node[171].phi = 0.00
SN.node[171].theta = 0.00
SN.node[172].xCoor = 64.95
SN.node[172].yCoor = 81.59
SN.node[172].zCoor = 0.00
SN.node[172].phi = 0.00
SN.node[172].theta = 0.00
SN.node[173].xCoor = 140.43
SN.node[173].yCoor = 59.45
SN.node[173].zCoor = 0.00
SN.node[173].phi = 0.00
SN.node[173].theta = 0.00
SN.node[174].xCoor = 146.73
SN.node[174].yCoor = 38.70
SN.node[174].zCoor = 0.00
SN.node[174].phi = 0.00
SN.node[174].theta = 0.00
SN.node[175].xCoor = 79.75
SN.node[175].yCoor = 59.84
SN.node[175].zCoor = 0.00
SN.node[175].phi = 0.00
SN.node[175].theta = 0.00
SN.node[176].xCoor = 107.21
SN.node[176].yCoor = 24.24
SN.node[176].zCoor = 0.00
SN.node[176].phi = 0.00
SN.node[176].theta = 0.00
SN.node[177].xCoor = 97.56
SN.node[177].yCoor = 26.25
SN.node[177].zCoor = 0.00
SN.node[177].phi = 0.00
SN.node[177].theta = 0.00
SN.node[178].xCoor = 54.44
SN.node[178].yCoor = 115.51
SN.node[178].zCoor = 0.00
SN.node[178].phi = 0.00
SN.node[178].theta = 0.00
SN.node[179].xCoor = 143.84
SN.node[179].yCoor = 98.17
SN.node[179].zCoor = 0.00
SN.node[179].phi = 0.00
SN.node[179].theta = 0.00
SN.node[180].xCoor = 5.67
SN.node[180].yCoor = 17.80
SN.node[180].zCoor = 0.00
SN.node[180].phi = 0.00
SN.node[180].theta = 0.00
SN.node[181].xCoor = 41.10
SN.node[181].yCoor = 94.10
SN.node[181].zCoor = 0.00
SN.node[181].phi = 0.00
SN.node[181].theta = 0.00
SN.node[182].xCoor = 134.77
SN.node[182].yCoor = 69.95
SN.node[182].zCoor = 0.00
SN.node[182].phi = 0.00
SN.node[182].theta = 0.00
SN.node[183].xCoor = 114.90
SN.node[183].yCoor = 96.85
SN.node[183].zCoor = 0.00
SN.node[183].phi = 0.00
SN.node[183].theta = 0.00
SN.node[184].xCoor = 10.62
SN.node[184].yCoor = 10.16
SN.node[184].zCoor = 0.00
SN.node[184].phi = 0.00
SN.node[184].theta = 0.00
SN.node[185].xCoor = 139.02
SN.node[185].yCoor = 4.73
SN.node[185].zCoor = 0.00
SN.node[185].phi = 0.00
SN.node[185].theta = 0.00
SN.node[186].xCoor = 36.01
SN.node[186].yCoor = 4.88
SN.node[186].zCoor = 0.00
SN.node[186].phi = 0.00
SN.node[186].theta = 0.00
SN.node[187].xCoor = 2.45
SN.node[187].yCoor = 101.27
SN.node[187].zCoor = 0.00
SN.node[187].phi = 0.00
SN.node[187].theta = 0.00
SN.node[188].xCoor = 52.90
SN.node[188].yCoor = 19.28
SN.node[188].zCoor = 0.00
SN.node[188].phi = 0.00
SN.node[188].theta = 0.00
SN.node[189].xCoor = 23.81
SN.node[189].yCoor = 78.73
SN.node[189].zCoor = 0.00
SN.node[189].phi = 0.00
SN.node[189].theta = 0.00
SN.node[190].xCoor = 154.98
SN.node[190].yCoor = 60.60
SN.node[190].zCoor = 0.00
SN.node[190].phi = 0.00
SN.node[190].theta = 0.00
SN.node[191].xCoor = 144.17
SN.node[191].yCoor = 60.29
SN.node[191].zCoor = 0.00
SN.node[191].phi = 0.00
SN.node[191].theta = 0.00
SN.node[192].xCoor = 91.82
SN.node[192].yCoor = 81.43
SN.node[192].zCoor = 0.00
SN.node[192].phi = 0.00
SN.node[192].theta = 0.00
SN.node[193].xCoor = 128.82
SN.node[193].yCoor = 90.94
SN.node[193].zCoor = 0.00
SN.node[193].phi = 0.00
SN.node[193].theta = 0.00
SN.node[194].xCoor = 158.49
SN.node[194].yCoor = 89.64
SN.node[194].zCoor = 0.00
SN.node[194].phi = 0.00
SN.node[194].theta = 0.00
SN.node[195].xCoor = 144.92
SN.node[195].yCoor = 24.73
SN.node[195].zCoor = 0.00
SN.node[195].phi = 0.00
SN.node[195].theta = 0.00
SN.node[196].xCoor = 85.67
SN.node[196].yCoor = 71.83
SN.node[196].zCoor = 0.00
SN.node[196].phi = 0.00
SN.node[196].theta = 0.00
SN.node[197].xCoor = 132.11
SN.node[197].yCoor = 57.87
SN.node[197].zCoor = 0.00
SN.node[197].phi = 0.00
SN.node[197].theta = 0.00
SN.node[198].xCoor = 126.57
SN.node[198].yCoor = 46.63
SN.node[198].zCoor = 0.00
SN.node[198].phi = 0.00
SN.node[198].theta = 0.00
SN.node[199].xCoor = 93.82
SN.node[199].yCoor = 102.16
SN.node[199].zCoor = 0.00
SN.node[199].phi = 0.00
SN.node[199].theta = 0.00
SN.node[200].xCoor = 127.69
SN.node[200].yCoor = 78.84
SN.node[200].zCoor = 0.00
SN.node[200].phi = 0.00
SN.node[200].theta = 0.00
SN.node[201].xCoor = 0.04
SN.node[201].yCoor = 21.84
SN.node[201].zCoor = 0.00
SN.node[201].phi = 0.00
SN.node[201].theta = 0.00
SN.node[202].xCoor = 81.10
SN.node[202].yCoor = 30.54
SN.node[202].zCoor = 0.00
SN.node[202].phi = 0.00
SN.node[202].theta = 0.00
SN.node[203].xCoor = 10.50
SN.node[203].yCoor = 103.19
SN.node[203].zCoor = 0.00
SN.node[203].phi = 0.00
SN.node[203].theta = 0.00
SN.node[204].xCoor = 150.87
SN.node[204].yCoor = 36.34
SN.node[204].zCoor = 0.00
SN.node[204].phi = 0.00
SN.node[204].theta = 0.00
SN.node[205].xCoor = 65.29
SN.node[205].yCoor = 97.20